Attic/Initial_Examples/Dynawo_PyPoWSyBl/DynaSwing/fic_IIDM_v1_2.xml
<?xml version='1.0' encoding='ISO-8859-1' standalone='no'?>
<network xmlns="http://www.powsybl.org/schema/iidm/1_2" xmlns:apc="http://www.itesla_project.eu/schema/iidm/ext/active_power_control/1_0" xmlns:gapc="http://www.itesla_project.eu/schema/iidm/ext/generator_active_power_control/1_0" xmlns:hapc="http://www.itesla_project.eu/schema/iidm/ext/hvdc_angle_droop_active_power_control/1_0" xmlns:hopr="http://www.itesla_project.eu/schema/iidm/ext/hvdc_operator_active_power_range/1_0" xmlns:sa="http://www.itesla_project.eu/schema/iidm/ext/standby_automaton/1_0" id="recollement-auto-20200527-1700" caseDate="2020-05-27T17:00:00.000+02:00" forecastDistance="0" sourceFormat="NF">
  <substation id=".A.ZA 6_site" name="undefined" country="ES">
    <voltageLevel id=".A.ZA 6" nominalV="225" topologyKind="BUS_BREAKER">
      <busBreakerTopology>
        <bus id=".A.ZA 61" v="227.80432158194827" angle="3.6807937207236732"/>
        <bus id=".A.ZA 62" v="227.84844838513263" angle="3.6846808275456819"/>
      </busBreakerTopology>
      <load id=".A.ZA 6 AVEZT_2" loadType="UNDEFINED" p0="-15.486837387084961" q0="9.4819002151489258" bus=".A.ZA 62" connectableBus=".A.ZA 62" p="-15.486837387084961" q="9.4819002151489258"/>
      <load id="merged_load_.A.ZA 61_1" loadType="UNDEFINED" p0="10.306213855743408" q0="9.0550470352172852" bus=".A.ZA 61" connectableBus=".A.ZA 61" p="10.306213855743408" q="9.0550470352172852"/>
    </voltageLevel>
  </substation>
  <substation id=".ABAD 6_site" name="undefined" country="ES">
    <voltageLevel id=".ABAD 6" nominalV="225" topologyKind="BUS_BREAKER">
      <busBreakerTopology>
        <bus id=".ABAD 61" v="226.96314763175741" angle="-11.749854105854782"/>
      </busBreakerTopology>
      <load id="merged_load_.ABAD 61_1" loadType="UNDEFINED" p0="103.08680653572083" q0="-22.7371666431427" bus=".ABAD 61" connectableBus=".ABAD 61" p="103.08680653572083" q="-22.7371666431427"/>
    </voltageLevel>
  </substation>
  <substation id=".ABAN 7_site" name="undefined" country="ES">
    <voltageLevel id=".ABAN 7" nominalV="380" topologyKind="BUS_BREAKER">
      <busBreakerTopology>
        <bus id=".ABAN 71" v="413.49736981109294" angle="-11.417540452149749"/>
      </busBreakerTopology>
      <load id="fict_.ABAN 7_1" loadType="FICTITIOUS" p0="-7.3149232864379883" q0="16.675624847412109" bus=".ABAN 71" connectableBus=".ABAN 71" p="-7.3149232864379883" q="16.675624847412109">
        <property name="chargeFictive" value="consoFictive"/>
      </load>
    </voltageLevel>
  </substation>
  <substation id=".ABRE 6_site" name="undefined" country="ES">
    <voltageLevel id=".ABRE 6" nominalV="225" topologyKind="BUS_BREAKER">
      <busBreakerTopology>
        <bus id=".ABRE 61" v="228.68725616550975" angle="0.13441692599177055"/>
      </busBreakerTopology>
      <load id="merged_load_.ABRE 61_1" loadType="UNDEFINED" p0="43.612764716148376" q0="10.811376452445984" bus=".ABRE 61" connectableBus=".ABRE 61" p="43.612764716148376" q="10.811376452445984"/>
    </voltageLevel>
  </substation>
  <substation id=".ACHE 7_site" name="undefined" country="BE">
    <voltageLevel id=".ACHE 7" nominalV="380" topologyKind="BUS_BREAKER">
      <busBreakerTopology>
        <bus id=".ACHE 71" v="412.27831018113409" angle="-14.055373411023913"/>
      </busBreakerTopology>
      <load id="merged_load_.ACHE 71_1" loadType="UNDEFINED" p0="32.254817187786102" q0="-13.697288274765015" bus=".ACHE 71" connectableBus=".ACHE 71" p="32.254817187786102" q="-13.697288274765015"/>
    </voltageLevel>
  </substation>
  <substation id=".ADRL 6_site" name="undefined" country="ES">
    <voltageLevel id=".ADRL 6" nominalV="225" topologyKind="BUS_BREAKER">
      <busBreakerTopology>
        <bus id=".ADRL 61" v="234.37507549695474" angle="4.6795602287217761"/>
      </busBreakerTopology>
      <load id=".ADRL 6 TR 654 C" loadType="UNDEFINED" p0="-66.467353820800781" q0="-2.0900380611419678" bus=".ADRL 61" connectableBus=".ADRL 61" p="-66.467353820800781" q="-2.0900380611419678"/>
    </voltageLevel>
  </substation>
  <substation id=".AGUA 7_site" name="undefined" country="ES">
    <voltageLevel id=".AGUA 6" nominalV="225" topologyKind="BUS_BREAKER">
      <busBreakerTopology>
        <bus id=".AGUA 61" v="230.78228759765625" angle="-12.620827615585073"/>
      </busBreakerTopology>
      <generator id=".AGUAT 1" energySource="OTHER" minP="0" maxP="200" voltageRegulatorOn="true" targetP="-0" bus=".AGUA 61" connectableBus=".AGUA 61" p="0" q="8.5882224880151625e-05" targetV="225">
        <reactiveCapabilityCurve>
          <point p="0" minQ="-200" maxQ="100"/>
          <point p="200" minQ="-200" maxQ="100"/>
        </reactiveCapabilityCurve>
      </generator>
      <generator id=".AGUAT 2" energySource="OTHER" minP="0" maxP="200" voltageRegulatorOn="true" targetP="-0" bus=".AGUA 61" connectableBus=".AGUA 61" p="0" q="8.5882224880151625e-05" targetV="225">
        <reactiveCapabilityCurve>
          <point p="0" minQ="-200" maxQ="100"/>
          <point p="200" minQ="-200" maxQ="100"/>
        </reactiveCapabilityCurve>
      </generator>
      <load id=".AGUA 6 TR 611 C" loadType="UNDEFINED" p0="-2.05118727684021" q0="-1.2560322284698486" bus=".AGUA 61" connectableBus=".AGUA 61" p="-2.05118727684021" q="-1.2560322284698486"/>
    </voltageLevel>
    <voltageLevel id=".AGUA 7" nominalV="380" topologyKind="BUS_BREAKER">
      <busBreakerTopology>
        <bus id=".AGUA 71" v="417.2382712585686" angle="-12.020389005809434"/>
      </busBreakerTopology>
      <load id="fict_.AGUA 7_1" loadType="FICTITIOUS" p0="4.2323236465454102" q0="-11.06725025177002" bus=".AGUA 71" connectableBus=".AGUA 71" p="4.2323236465454102" q="-11.06725025177002">
        <property name="chargeFictive" value="consoFictive"/>
      </load>
    </voltageLevel>
    <twoWindingsTransformer id=".AGUA AT 761" r="0.72199910879135132" x="43.320003509521484" g="0" b="0" ratedU1="225" ratedU2="380" voltageLevelId1=".AGUA 6" bus1=".AGUA 61" connectableBus1=".AGUA 61" voltageLevelId2=".AGUA 7" bus2=".AGUA 71" connectableBus2=".AGUA 71" p1="-41.673090242586625" q1="67.74694328104988" p2="41.698489509665436" q2="-66.222985341216372">
      <ratioTapChanger lowTapPosition="0" tapPosition="0" loadTapChangingCapabilities="false" regulating="false" targetDeadband="0.0">
        <step r="0" x="0" g="0" b="0" rho="1.0880000591278076"/>
        <step r="0" x="0" g="0" b="0" rho="1.0829999446868896"/>
        <step r="0" x="0" g="0" b="0" rho="1.0779999494552612"/>
        <step r="0" x="0" g="0" b="0" rho="1.0729999542236328"/>
        <step r="0" x="0" g="0" b="0" rho="1.0679999589920044"/>
        <step r="0" x="0" g="0" b="0" rho="1.0640000104904175"/>
        <step r="0" x="0" g="0" b="0" rho="1.0590000152587891"/>
        <step r="0" x="0" g="0" b="0" rho="1.0540000200271606"/>
        <step r="0" x="0" g="0" b="0" rho="1.0490000247955322"/>
        <step r="0" x="0" g="0" b="0" rho="1.0440000295639038"/>
        <step r="0" x="0" g="0" b="0" rho="1.0399999618530273"/>
        <step r="0" x="0" g="0" b="0" rho="1.0349999666213989"/>
        <step r="0" x="0" g="0" b="0" rho="1.0299999713897705"/>
        <step r="0" x="0" g="0" b="0" rho="1.0249999761581421"/>
        <step r="0" x="0" g="0" b="0" rho="1.0199999809265137"/>
        <step r="0" x="0" g="0" b="0" rho="1.0160000324249268"/>
        <step r="0" x="0" g="0" b="0" rho="1.0110000371932983"/>
        <step r="0" x="0" g="0" b="0" rho="1.0060000419616699"/>
        <step r="0" x="0" g="0" b="0" rho="1.0010000467300415"/>
        <step r="0" x="0" g="0" b="0" rho="0.99599999189376831"/>
        <step r="0" x="0" g="0" b="0" rho="0.99199998378753662"/>
        <step r="0" x="0" g="0" b="0" rho="0.9869999885559082"/>
        <step r="0" x="0" g="0" b="0" rho="0.98199999332427979"/>
        <step r="0" x="0" g="0" b="0" rho="0.97699999809265137"/>
        <step r="0" x="0" g="0" b="0" rho="0.97200000286102295"/>
        <step r="0" x="0" g="0" b="0" rho="0.96799999475479126"/>
        <step r="0" x="0" g="0" b="0" rho="0.96299999952316284"/>
        <step r="0" x="0" g="0" b="0" rho="0.95800000429153442"/>
        <step r="0" x="0" g="0" b="0" rho="0.95300000905990601"/>
      </ratioTapChanger>
    </twoWindingsTransformer>
  </substation>
  <substation id=".ALBL 6_site" name="undefined" country="ES">
    <voltageLevel id=".ALBL 6" nominalV="225" topologyKind="BUS_BREAKER">
      <busBreakerTopology>
        <bus id=".ALBL 61" v="229.7765943813589" angle="4.7924896597511717"/>
      </busBreakerTopology>
      <load id=".ALBL 6 TR 612 C" loadType="UNDEFINED" p0="0" q0="0" connectableBus=".ALBL 61"/>
      <load id=".ALBL 6 TR 613 C" loadType="UNDEFINED" p0="0" q0="0" connectableBus=".ALBL 61"/>
      <load id=".ALBL 6 TR 611 C" loadType="UNDEFINED" p0="9.62799072265625" q0="-0.68062078952789307" bus=".ALBL 61" connectableBus=".ALBL 61" p="9.62799072265625" q="-0.68062078952789307"/>
    </voltageLevel>
  </substation>
  <substation id=".ALBT 6_site" name="undefined" country="ES">
    <voltageLevel id=".ALBT 6" nominalV="225" topologyKind="BUS_BREAKER">
      <busBreakerTopology>
        <bus id=".ALBT 61" v="224.36788408232812" angle="5.0417974135601913"/>
      </busBreakerTopology>
      <load id="merged_load_.ALBT 61_1" loadType="UNDEFINED" p0="14.188165664672852" q0="-4.3653702735900879" bus=".ALBT 61" connectableBus=".ALBT 61" p="14.188165664672852" q="-4.3653702735900879"/>
    </voltageLevel>
  </substation>
  <substation id=".ALII 6_site" name="undefined" country="ES">
    <voltageLevel id=".ALII 6" nominalV="225" topologyKind="BUS_BREAKER">
      <busBreakerTopology>
        <bus id=".ALII 61" v="227.08932081235824" angle="-10.747161044536591"/>
      </busBreakerTopology>
      <load id="merged_load_.ALII 61_1" loadType="UNDEFINED" p0="43.343269348144531" q0="-6.0818486213684082" bus=".ALII 61" connectableBus=".ALII 61" p="43.343269348144531" q="-6.0818486213684082"/>
    </voltageLevel>
  </substation>
  <substation id=".AMOR 7_site" name="undefined" country="ES">
    <voltageLevel id=".AMOR 7" nominalV="380" topologyKind="BUS_BREAKER">
      <busBreakerTopology>
        <bus id=".AMOR 71" v="407.45993041992188" angle="-9.3502520942202825"/>
      </busBreakerTopology>
      <generator id=".AMORT 1" energySource="OTHER" minP="0" maxP="250" voltageRegulatorOn="true" targetP="165.84841918945312" bus=".AMOR 71" connectableBus=".AMOR 71" p="-165.84841918945312" q="33.517351893453451" targetV="380">
        <reactiveCapabilityCurve>
          <point p="0" minQ="-35" maxQ="70"/>
          <point p="250" minQ="-35" maxQ="70"/>
        </reactiveCapabilityCurve>
      </generator>
      <generator id=".AMORT 2" energySource="OTHER" minP="0" maxP="250" voltageRegulatorOn="true" targetP="0" bus=".AMOR 71" connectableBus=".AMOR 71" p="-0" q="33.517351893453451" targetV="380">
        <reactiveCapabilityCurve>
          <point p="0" minQ="-80" maxQ="155"/>
          <point p="250" minQ="-80" maxQ="155"/>
        </reactiveCapabilityCurve>
      </generator>
      <generator id=".AMORT 3" energySource="OTHER" minP="0" maxP="250" voltageRegulatorOn="true" targetP="103.41136932373047" bus=".AMOR 71" connectableBus=".AMOR 71" p="-103.41136932373047" q="33.517351893453451" targetV="380">
        <reactiveCapabilityCurve>
          <point p="0" minQ="-80" maxQ="155"/>
          <point p="250" minQ="-80" maxQ="155"/>
        </reactiveCapabilityCurve>
      </generator>
    </voltageLevel>
  </substation>
  <substation id=".ANCH 7_site" name="undefined" country="ES">
    <voltageLevel id=".ANCH 7" nominalV="380" topologyKind="BUS_BREAKER">
      <busBreakerTopology>
        <bus id=".ANCH 71" v="413.92220078905234" angle="-4.5142013611708514"/>
      </busBreakerTopology>
      <load id=".ANCH 7 .CONS 1" loadType="UNDEFINED" p0="0" q0="0" bus=".ANCH 71" connectableBus=".ANCH 71" p="0" q="0"/>
    </voltageLevel>
  </substation>
  <substation id=".ANDU 7_site" name="undefined" country="BE">
    <voltageLevel id=".ANDU 7" nominalV="380" topologyKind="BUS_BREAKER">
      <busBreakerTopology>
        <bus id=".ANDU 71" v="410.10649597638582" angle="-18.145863326326346"/>
      </busBreakerTopology>
      <load id=".ANDU 7 TR 751 C" loadType="UNDEFINED" p0="97.533302307128906" q0="-16.211746215820312" bus=".ANDU 71" connectableBus=".ANDU 71" p="97.533302307128906" q="-16.211746215820312"/>
    </voltageLevel>
  </substation>
  <substation id=".ANOI 6_site" name="undefined" country="ES">
    <voltageLevel id=".ANOI 6" nominalV="225" topologyKind="BUS_BREAKER">
      <busBreakerTopology>
        <bus id=".ANOI 61" v="229.99151338091883" angle="0.60757677364321794"/>
      </busBreakerTopology>
      <load id="merged_load_.ANOI 61_1" loadType="UNDEFINED" p0="15.619458198547363" q0="0.91424316167831421" bus=".ANOI 61" connectableBus=".ANOI 61" p="15.619458198547363" q="0.91424316167831421"/>
    </voltageLevel>
  </substation>
  <substation id=".ARAG 7_site" name="undefined" country="ES">
    <voltageLevel id=".ARAG 7" nominalV="380" topologyKind="BUS_BREAKER">
      <busBreakerTopology>
        <bus id=".ARAG 71" v="412.29259119267954" angle="5.9172420325511483"/>
        <bus id=".ARAG 72" v="406.718017578125" angle="6.9610987363500678"/>
      </busBreakerTopology>
      <generator id=".TERUT 1" energySource="OTHER" minP="0" maxP="500" voltageRegulatorOn="false" targetP="0" connectableBus=".ARAG 72" targetQ="0">
        <reactiveCapabilityCurve>
          <point p="0" minQ="-90" maxQ="100"/>
          <point p="500" minQ="-90" maxQ="100"/>
        </reactiveCapabilityCurve>
      </generator>
      <generator id=".TERUT 2" energySource="OTHER" minP="0" maxP="500" voltageRegulatorOn="true" targetP="0" bus=".ARAG 72" connectableBus=".ARAG 72" p="-0" q="-99.998746091088947" targetV="380">
        <reactiveCapabilityCurve>
          <point p="0" minQ="-90" maxQ="100"/>
          <point p="500" minQ="-90" maxQ="100"/>
        </reactiveCapabilityCurve>
      </generator>
      <load id=".ARAG 7 .PALB 1" loadType="UNDEFINED" p0="0" q0="0" connectableBus=".ARAG 72"/>
      <load id="merged_load_.ARAG 72_1" loadType="UNDEFINED" p0="-383.86242747306824" q0="150.77660751342773" bus=".ARAG 72" connectableBus=".ARAG 72" p="-383.86242747306824" q="150.77660751342773"/>
      <shunt id=".ARAG 7 REAC.1" bPerSection="-0.0010387811344116926" maximumSectionCount="1" currentSectionCount="1" bus=".ARAG 72" connectableBus=".ARAG 72" q="171.83470442375176" voltageRegulatorOn="false"/>
      <shunt id=".ARAG 7 REAC.2" bPerSection="-0.0010387811344116926" maximumSectionCount="1" currentSectionCount="0" connectableBus=".ARAG 72" q="9999" voltageRegulatorOn="false"/>
    </voltageLevel>
  </substation>
  <substation id=".ARCH" country="GB">
    <voltageLevel id=".ARCHP4" nominalV="90" topologyKind="BUS_BREAKER">
      <busBreakerTopology>
        <bus id=".ARCHP41" v="95.199357294487996" angle="-13.778302911314135"/>
      </busBreakerTopology>
    </voltageLevel>
  </substation>
  <substation id=".TDAR 6_site" name="undefined" country="ES">
    <voltageLevel id=".ARKA 6" nominalV="225" topologyKind="BUS_BREAKER">
      <busBreakerTopology>
        <bus id=".ARKA 61" v="226.12535696185051" angle="-8.33490858793302"/>
      </busBreakerTopology>
      <load id=".ARKA 6 .PASA 1" loadType="UNDEFINED" p0="0" q0="0" connectableBus=".ARKA 61"/>
      <load id=".ARKA 6 TR 652 C" loadType="UNDEFINED" p0="116.74784851074219" q0="-16.573068618774414" bus=".ARKA 61" connectableBus=".ARKA 61" p="116.74784851074219" q="-16.573068618774414"/>
    </voltageLevel>
    <voltageLevel id=".TDAR 6" nominalV="225" topologyKind="BUS_BREAKER">
      <busBreakerTopology>
        <bus id=".TDAR 61" v="226.78786690211484" angle="-8.924656361779677"/>
      </busBreakerTopology>
    </voltageLevel>
    <twoWindingsTransformer id=".ARKA TR 661" r="0.080000102519989014" x="8.3600072860717773" g="0" b="0" ratedU1="225" ratedU2="225" voltageLevelId1=".ARKA 6" bus1=".ARKA 61" connectableBus1=".ARKA 61" voltageLevelId2=".TDAR 6" bus2=".TDAR 61" connectableBus2=".TDAR 61" p1="-269.81967665800869" q1="-7.7018198292344096" p2="269.94225832275214" q2="20.511598181587033">
      <phaseTapChanger lowTapPosition="0" tapPosition="15" regulationMode="CURRENT_LIMITER" regulationValue="1047" regulating="false">
        <terminalRef id=".ARKA TR 661" side="ONE"/>
        <step r="72.599555969238281" x="72.599563598632812" g="0" b="0" rho="1" alpha="-50"/>
        <step r="66.021034240722656" x="66.021034240722656" g="0" b="0" rho="1" alpha="-47.200000762939453"/>
        <step r="59.920902252197266" x="59.920902252197266" g="0" b="0" rho="1" alpha="-44.400001525878906"/>
        <step r="53.461677551269531" x="53.461669921875" g="0" b="0" rho="1" alpha="-41.5"/>
        <step r="48.318267822265625" x="48.318267822265625" g="0" b="0" rho="1" alpha="-38.599998474121094"/>
        <step r="42.338008880615234" x="42.3380126953125" g="0" b="0" rho="1" alpha="-35.599998474121094"/>
        <step r="37.433792114257812" x="37.433795928955078" g="0" b="0" rho="1" alpha="-32.5"/>
        <step r="32.649471282958984" x="32.649467468261719" g="0" b="0" rho="1" alpha="-29.399999618530273"/>
        <step r="29.30024528503418" x="29.300249099731445" g="0" b="0" rho="1" alpha="-26.299999237060547"/>
        <step r="24.874410629272461" x="24.874418258666992" g="0" b="0" rho="1" alpha="-23.100000381469727"/>
        <step r="20.6883544921875" x="20.688360214233398" g="0" b="0" rho="1" alpha="-19.799999237060547"/>
        <step r="16.980066299438477" x="16.980066299438477" g="0" b="0" rho="1" alpha="-16.600000381469727"/>
        <step r="13.272382736206055" x="13.272385597229004" g="0" b="0" rho="1" alpha="-13.300000190734863"/>
        <step r="10.760626792907715" x="10.76063060760498" g="0" b="0" rho="1" alpha="-10"/>
        <step r="8.4874477386474609" x="8.4874544143676758" g="0" b="0" rho="1" alpha="-6.6999998092651367"/>
        <step r="7.5307116508483887" x="7.5307121276855469" g="0" b="0" rho="1" alpha="-3.2999999523162842"/>
        <step r="6.9330453872680664" x="6.933046817779541" g="0" b="0" rho="1" alpha="0"/>
        <step r="7.8897914886474609" x="7.8897995948791504" g="0" b="0" rho="1" alpha="3.2999999523162842"/>
        <step r="9.2056188583374023" x="9.2056188583374023" g="0" b="0" rho="1" alpha="6.6999998092651367"/>
        <step r="11.119101524353027" x="11.119102478027344" g="0" b="0" rho="1" alpha="10"/>
        <step r="13.391666412353516" x="13.391663551330566" g="0" b="0" rho="1" alpha="13.300000190734863"/>
        <step r="16.860780715942383" x="16.860788345336914" g="0" b="0" rho="1" alpha="16.600000381469727"/>
        <step r="19.731012344360352" x="19.731014251708984" g="0" b="0" rho="1" alpha="19.799999237060547"/>
        <step r="24.874410629272461" x="24.874418258666992" g="0" b="0" rho="1" alpha="23.100000381469727"/>
        <step r="29.419538497924805" x="29.419538497924805" g="0" b="0" rho="1" alpha="26.299999237060547"/>
        <step r="34.562957763671875" x="34.562950134277344" g="0" b="0" rho="1" alpha="29.399999618530273"/>
        <step r="38.868904113769531" x="38.868900299072266" g="0" b="0" rho="1" alpha="32.5"/>
        <step r="44.012310028076172" x="44.012306213378906" g="0" b="0" rho="1" alpha="35.599998474121094"/>
        <step r="48.318267822265625" x="48.318267822265625" g="0" b="0" rho="1" alpha="38.599998474121094"/>
        <step r="54.896797180175781" x="54.896800994873047" g="0" b="0" rho="1" alpha="41.5"/>
        <step r="60.279369354248047" x="60.279376983642578" g="0" b="0" rho="1" alpha="44.400001525878906"/>
        <step r="67.456169128417969" x="67.456169128417969" g="0" b="0" rho="1" alpha="47.200000762939453"/>
        <step r="73.197837829589844" x="73.197845458984375" g="0" b="0" rho="1" alpha="50"/>
      </phaseTapChanger>
      <currentLimits1 permanentLimit="1047"/>
      <currentLimits2 permanentLimit="1047">
        <temporaryLimit name="N/A" value="2300"/>
        <temporaryLimit name="IT1" acceptableDuration="60"/>
      </currentLimits2>
    </twoWindingsTransformer>
  </substation>
  <substation id=".ASCO 7_site" name="undefined" country="ES">
    <voltageLevel id=".ASCO 7" nominalV="380" topologyKind="BUS_BREAKER">
      <busBreakerTopology>
        <bus id=".ASCO 71" v="407.38784790039057" angle="6.1931448268349092"/>
        <bus id=".ASCO 72" v="408.67628863819948" angle="7.2032006846458003"/>
      </busBreakerTopology>
      <generator id=".ASCOT 1" energySource="OTHER" minP="0" maxP="1100" voltageRegulatorOn="false" targetP="0" connectableBus=".ASCO 71" targetQ="0">
        <reactiveCapabilityCurve>
          <point p="0" minQ="-200" maxQ="300"/>
          <point p="1100" minQ="-200" maxQ="300"/>
        </reactiveCapabilityCurve>
      </generator>
      <generator id=".ASCOT 2" energySource="OTHER" minP="0" maxP="1100" voltageRegulatorOn="true" targetP="1003.1517944335938" bus=".ASCO 71" connectableBus=".ASCO 71" p="-1003.1517944335938" q="57.612603597685506" targetV="380">
        <reactiveCapabilityCurve>
          <point p="0" minQ="-200" maxQ="300"/>
          <point p="1100" minQ="-200" maxQ="300"/>
        </reactiveCapabilityCurve>
      </generator>
      <load id="merged_load_.ASCO 71_1" loadType="UNDEFINED" p0="22" q0="-8" bus=".ASCO 71" connectableBus=".ASCO 71" p="22" q="-8"/>
      <shunt id=".ASCO 7 REAC.1" bPerSection="-0.0010387811344116926" maximumSectionCount="1" currentSectionCount="1" bus=".ASCO 71" connectableBus=".ASCO 71" q="172.40116506991842" voltageRegulatorOn="false"/>
    </voltageLevel>
  </substation>
  <substation id=".ASPH 7_site" name="undefined" country="CH">
    <voltageLevel id=".ASPH 7" nominalV="380" topologyKind="BUS_BREAKER">
      <busBreakerTopology>
        <bus id=".ASPH 71" v="411.08078334842088" angle="-20.746339354640995"/>
      </busBreakerTopology>
      <load id=".ASPH 7 TR 751 C" loadType="UNDEFINED" p0="2.8863093852996826" q0="0.19432947039604187" bus=".ASPH 71" connectableBus=".ASPH 71" p="2.8863093852996826" q="0.19432947039604187"/>
    </voltageLevel>
  </substation>
  <substation id=".AUBA 7_site" name="undefined" country="BE">
    <voltageLevel id=".AUBA 6" nominalV="225" topologyKind="BUS_BREAKER">
      <busBreakerTopology>
        <bus id=".AUBA 61" v="239.99478149414062" angle="-14.390516080952093"/>
      </busBreakerTopology>
      <generator id=".AUBAT 1" energySource="OTHER" minP="-20" maxP="200" voltageRegulatorOn="true" targetP="-17.10365104675293" bus=".AUBA 61" connectableBus=".AUBA 61" p="17.10365104675293" q="-12.881351919848484" targetV="225">
        <reactiveCapabilityCurve>
          <point p="-20" minQ="-30000" maxQ="30000"/>
          <point p="200" minQ="-30000" maxQ="30000"/>
        </reactiveCapabilityCurve>
      </generator>
      <generator id=".AUBAT 2" energySource="OTHER" minP="-20" maxP="200" voltageRegulatorOn="true" targetP="-17.10365104675293" bus=".AUBA 61" connectableBus=".AUBA 61" p="17.10365104675293" q="-12.881351919848484" targetV="225">
        <reactiveCapabilityCurve>
          <point p="-20" minQ="-30000" maxQ="30000"/>
          <point p="200" minQ="-30000" maxQ="30000"/>
        </reactiveCapabilityCurve>
      </generator>
      <load id="merged_load_.AUBA 61_1" loadType="UNDEFINED" p0="11" q0="-1" bus=".AUBA 61" connectableBus=".AUBA 61" p="11" q="-1"/>
      <shunt id=".AUBA 6 REAC.1" bPerSection="-0.0024553088005632162" maximumSectionCount="1" currentSectionCount="1" bus=".AUBA 61" connectableBus=".AUBA 61" q="141.4196289371132" voltageRegulatorOn="false"/>
    </voltageLevel>
    <voltageLevel id=".AUBA 7" nominalV="380" topologyKind="BUS_BREAKER">
      <busBreakerTopology>
        <bus id=".AUBA 71" v="413.24496765668312" angle="-14.266746307503617"/>
      </busBreakerTopology>
    </voltageLevel>
    <twoWindingsTransformer id=".AUBA AT 761" r="1.128125786781311" x="82.226936340332031" g="0" b="0" ratedU1="225" ratedU2="380" voltageLevelId1=".AUBA 6" bus1=".AUBA 61" connectableBus1=".AUBA 61" voltageLevelId2=".AUBA 7" bus2=".AUBA 71" connectableBus2=".AUBA 71" p1="-4.5450800002987286" q1="-5.096077476069695" p2="4.5453895671362297" q2="5.1186412120050591">
      <ratioTapChanger lowTapPosition="0" tapPosition="6" loadTapChangingCapabilities="false" regulating="false" targetDeadband="0.0">
        <step r="0" x="0" g="0" b="0" rho="1.0670000314712524"/>
        <step r="0" x="0" g="0" b="0" rho="1.0590000152587891"/>
        <step r="0" x="0" g="0" b="0" rho="1.0499999523162842"/>
        <step r="0" x="0" g="0" b="0" rho="1.0420000553131104"/>
        <step r="0" x="0" g="0" b="0" rho="1.0329999923706055"/>
        <step r="0" x="0" g="0" b="0" rho="1.0249999761581421"/>
        <step r="0" x="0" g="0" b="0" rho="1.0169999599456787"/>
        <step r="0" x="0" g="0" b="0" rho="1.0080000162124634"/>
        <step r="0" x="0" g="0" b="0" rho="1"/>
        <step r="0" x="0" g="0" b="0" rho="0.99099999666213989"/>
        <step r="0" x="0" g="0" b="0" rho="0.98299998044967651"/>
        <step r="0" x="0" g="0" b="0" rho="0.97500002384185791"/>
        <step r="0" x="0" g="0" b="0" rho="0.9660000205039978"/>
        <step r="0" x="0" g="0" b="0" rho="0.95800000429153442"/>
        <step r="0" x="0" g="0" b="0" rho="0.94900000095367432"/>
        <step r="0" x="0" g="0" b="0" rho="0.94099998474121094"/>
        <step r="0" x="0" g="0" b="0" rho="0.93300002813339233"/>
        <step r="0" x="0" g="0" b="0" rho="0.92400002479553223"/>
        <step r="0" x="0" g="0" b="0" rho="0.91600000858306885"/>
        <step r="0" x="0" g="0" b="0" rho="0.90700000524520874"/>
        <step r="0" x="0" g="0" b="0" rho="0.89899998903274536"/>
        <step r="0" x="0" g="0" b="0" rho="0.89099997282028198"/>
        <step r="0" x="0" g="0" b="0" rho="0.88200002908706665"/>
      </ratioTapChanger>
    </twoWindingsTransformer>
    <twoWindingsTransformer id=".AUBA AT 762" r="1.0108007192611694" x="80.52996826171875" g="0" b="0" ratedU1="225" ratedU2="380" voltageLevelId1=".AUBA 6" bus1=".AUBA 61" connectableBus1=".AUBA 61" voltageLevelId2=".AUBA 7" bus2=".AUBA 71" connectableBus2=".AUBA 71" p1="-4.6563021526679549" q1="-7.27608774328246" p2="4.6567469300996187" q2="7.3115229287182046">
      <ratioTapChanger lowTapPosition="0" tapPosition="6" loadTapChangingCapabilities="false" regulating="false" targetDeadband="0.0">
        <step r="0" x="0" g="0" b="0" rho="1.0659999847412109"/>
        <step r="0" x="0" g="0" b="0" rho="1.0579999685287476"/>
        <step r="0" x="0" g="0" b="0" rho="1.0490000247955322"/>
        <step r="0" x="0" g="0" b="0" rho="1.0410000085830688"/>
        <step r="0" x="0" g="0" b="0" rho="1.0329999923706055"/>
        <step r="0" x="0" g="0" b="0" rho="1.0240000486373901"/>
        <step r="0" x="0" g="0" b="0" rho="1.0160000324249268"/>
        <step r="0" x="0" g="0" b="0" rho="1.0080000162124634"/>
        <step r="0" x="0" g="0" b="0" rho="0.99900001287460327"/>
        <step r="0" x="0" g="0" b="0" rho="0.99099999666213989"/>
        <step r="0" x="0" g="0" b="0" rho="0.98299998044967651"/>
        <step r="0" x="0" g="0" b="0" rho="0.97500002384185791"/>
        <step r="0" x="0" g="0" b="0" rho="0.9660000205039978"/>
        <step r="0" x="0" g="0" b="0" rho="0.95800000429153442"/>
        <step r="0" x="0" g="0" b="0" rho="0.94999998807907104"/>
        <step r="0" x="0" g="0" b="0" rho="0.94099998474121094"/>
        <step r="0" x="0" g="0" b="0" rho="0.93300002813339233"/>
        <step r="0" x="0" g="0" b="0" rho="0.92500001192092896"/>
        <step r="0" x="0" g="0" b="0" rho="0.91600000858306885"/>
        <step r="0" x="0" g="0" b="0" rho="0.90799999237060547"/>
        <step r="0" x="0" g="0" b="0" rho="0.89999997615814209"/>
        <step r="0" x="0" g="0" b="0" rho="0.89099997282028198"/>
        <step r="0" x="0" g="0" b="0" rho="0.88300001621246338"/>
      </ratioTapChanger>
    </twoWindingsTransformer>
  </substation>
  <substation id=".AUBS 6_site" name="undefined" country="ES">
    <voltageLevel id=".AUBS 6" nominalV="225" topologyKind="BUS_BREAKER">
      <busBreakerTopology>
        <bus id=".AUBS 61" v="224.1578369140625" angle="2.0397902436276447"/>
      </busBreakerTopology>
      <generator id=".AUBST 0" energySource="OTHER" minP="0" maxP="30" voltageRegulatorOn="true" targetP="11" bus=".AUBS 61" connectableBus=".AUBS 61" p="-11" q="2.0004035930303417" targetV="225">
        <reactiveCapabilityCurve>
          <point p="0" minQ="-9" maxQ="9"/>
          <point p="30" minQ="-9" maxQ="9"/>
        </reactiveCapabilityCurve>
      </generator>
      <load id="merged_load_.AUBS 61_1" loadType="UNDEFINED" p0="3.7448678016662598" q0="0.1050788015127182" bus=".AUBS 61" connectableBus=".AUBS 61" p="3.7448678016662598" q="0.1050788015127182"/>
    </voltageLevel>
  </substation>
  <substation id=".AVEL 7_site" name="undefined" country="BE">
    <voltageLevel id=".AVEL 7" nominalV="380" topologyKind="BUS_BREAKER">
      <busBreakerTopology>
        <bus id=".AVEL 71" v="403.13394388592525" angle="-19.464920145292961"/>
      </busBreakerTopology>
      <generator id=".AVELT 1" energySource="OTHER" minP="0" maxP="30000" voltageRegulatorOn="false" targetP="0" connectableBus=".AVEL 71" targetQ="0">
        <reactiveCapabilityCurve>
          <point p="0" minQ="0" maxQ="0"/>
          <point p="30000" minQ="0" maxQ="0"/>
        </reactiveCapabilityCurve>
      </generator>
      <generator id=".AVELT 2" energySource="OTHER" minP="0" maxP="30000" voltageRegulatorOn="false" targetP="0" connectableBus=".AVEL 71" targetQ="0">
        <reactiveCapabilityCurve>
          <point p="0" minQ="0" maxQ="0"/>
          <point p="30000" minQ="0" maxQ="0"/>
        </reactiveCapabilityCurve>
      </generator>
      <load id="merged_load_.AVEL 71_1" loadType="UNDEFINED" p0="321.53150939941406" q0="59.957427740097046" bus=".AVEL 71" connectableBus=".AVEL 71" p="321.53150939941406" q="59.957427740097046"/>
    </voltageLevel>
  </substation>
  <substation id=".AVIS 6_site" name="undefined" country="IT">
    <voltageLevel id=".AVIS 6" nominalV="225" topologyKind="BUS_BREAKER">
      <busBreakerTopology>
        <bus id=".AVIS 61" v="236.9298095703125" angle="-12.15464028720019"/>
      </busBreakerTopology>
      <generator id=".AVIST 1" energySource="OTHER" minP="-70" maxP="70" voltageRegulatorOn="true" targetP="56.797115325927734" bus=".AVIS 61" connectableBus=".AVIS 61" p="-56.797115325927734" q="16.417639968907224" targetV="225">
        <reactiveCapabilityCurve>
          <point p="-70" minQ="-21" maxQ="21"/>
          <point p="70" minQ="-21" maxQ="21"/>
        </reactiveCapabilityCurve>
      </generator>
      <generator id=".AVIST 2" energySource="OTHER" minP="-70" maxP="70" voltageRegulatorOn="true" targetP="56.797115325927734" bus=".AVIS 61" connectableBus=".AVIS 61" p="-56.797115325927734" q="16.417639968907224" targetV="225">
        <reactiveCapabilityCurve>
          <point p="-70" minQ="-21" maxQ="21"/>
          <point p="70" minQ="-21" maxQ="21"/>
        </reactiveCapabilityCurve>
      </generator>
    </voltageLevel>
  </substation>
  <substation id=".AYAL 6_site" name="undefined" country="ES">
    <voltageLevel id=".AYAL 6" nominalV="225" topologyKind="BUS_BREAKER">
      <busBreakerTopology>
        <bus id=".AYAL 61" v="231.79859868163686" angle="-12.680073170671154"/>
      </busBreakerTopology>
      <load id="merged_load_.AYAL 61_1" loadType="UNDEFINED" p0="68.839533805847168" q0="-37.642274022102356" bus=".AYAL 61" connectableBus=".AYAL 61" p="68.839533805847168" q="-37.642274022102356"/>
    </voltageLevel>
  </substation>
  <substation id=".AYOR 7_site" name="undefined" country="ES">
    <voltageLevel id=".AYOR 7" nominalV="380" topologyKind="BUS_BREAKER">
      <busBreakerTopology>
        <bus id=".AYOR 71" v="409.03975160949119" angle="9.471448614299101"/>
      </busBreakerTopology>
      <load id=".AYOR 7 .CONS 1" loadType="UNDEFINED" p0="-341.99252319335938" q0="133.29533386230469" bus=".AYOR 71" connectableBus=".AYOR 71" p="-341.99252319335938" q="133.29533386230469">
        <property name="VECTCodeOITransfoDistrib" value="BOOS -Y413"/>
      </load>
    </voltageLevel>
  </substation>
  <substation id=".AZPE 7_site" name="undefined" country="ES">
    <voltageLevel id=".AZPE 7" nominalV="380" topologyKind="BUS_BREAKER">
      <busBreakerTopology>
        <bus id=".AZPE 71" v="405.99546069882553" angle="-8.7890194991069954"/>
      </busBreakerTopology>
      <load id=".AZPE 7 TR 751 C" loadType="UNDEFINED" p0="107.05831909179688" q0="-0.37066501379013062" bus=".AZPE 71" connectableBus=".AZPE 71" p="107.05831909179688" q="-0.37066501379013062"/>
    </voltageLevel>
  </substation>
  <substation id=".BA.O 6_site" name="undefined" country="CH">
    <voltageLevel id=".BA.O 6" nominalV="225" topologyKind="BUS_BREAKER">
      <busBreakerTopology>
        <bus id=".BA.O 61" v="238.78633649962029" angle="-12.017347447650621"/>
      </busBreakerTopology>
      <load id=".BA.O 6 TR 651 C" loadType="UNDEFINED" p0="126.62123870849609" q0="-37.670433044433594" bus=".BA.O 61" connectableBus=".BA.O 61" p="126.62123870849609" q="-37.670433044433594">
        <property name="VECTCodeOITransfoDistrib" value="BRET5-Y312"/>
      </load>
    </voltageLevel>
  </substation>
  <substation id=".BABC 6_site" name="undefined" country="ES">
    <voltageLevel id=".BABC 6" nominalV="225" topologyKind="BUS_BREAKER">
      <busBreakerTopology>
        <bus id=".BABC 61" v="229.68754513256306" angle="-12.807165419483972"/>
      </busBreakerTopology>
    </voltageLevel>
  </substation>
  <substation id=".BAGG 7_site" name="undefined" country="IT">
    <voltageLevel id=".BAGG 7" nominalV="380" topologyKind="BUS_BREAKER">
      <busBreakerTopology>
        <bus id=".BAGG 71" v="404.63543004467431" angle="-27.815191451808655"/>
      </busBreakerTopology>
      <load id="merged_load_.BAGG 71_1" loadType="UNDEFINED" p0="338.61570739746094" q0="-29.587424516677856" bus=".BAGG 71" connectableBus=".BAGG 71" p="338.61570739746094" q="-29.587424516677856"/>
    </voltageLevel>
  </substation>
  <substation id=".BASA 6_site" name="undefined" country="ES">
    <voltageLevel id=".BASA 6" nominalV="225" topologyKind="BUS_BREAKER">
      <busBreakerTopology>
        <bus id=".BASA 61" v="228.78616650303783" angle="-12.9224532175846"/>
      </busBreakerTopology>
      <load id=".BASA 6 TR 652 C" loadType="UNDEFINED" p0="0" q0="0" connectableBus=".BASA 61">
        <property name="VECTCodeOITransfoDistrib" value="BXVAL-Y311"/>
      </load>
      <load id="merged_load_.BASA 61_1" loadType="UNDEFINED" p0="114.29247283935547" q0="16.451590538024902" bus=".BASA 61" connectableBus=".BASA 61" p="114.29247283935547" q="16.451590538024902"/>
    </voltageLevel>
  </substation>
  <substation id=".TDBA 6_site" name="undefined" country="CH">
    <voltageLevel id=".BASS 6" nominalV="225" topologyKind="BUS_BREAKER">
      <busBreakerTopology>
        <bus id=".BASS 61" v="240.25912625352856" angle="-16.96332348780323"/>
      </busBreakerTopology>
      <load id="fict_.BASS 6_1" loadType="FICTITIOUS" p0="-24.136396408081055" q0="55.899921417236328" bus=".BASS 61" connectableBus=".BASS 61" p="-24.136396408081055" q="55.899921417236328">
        <property name="chargeFictive" value="consoFictive"/>
      </load>
    </voltageLevel>
    <voltageLevel id=".BASS 7" nominalV="380" topologyKind="BUS_BREAKER">
      <busBreakerTopology>
        <bus id=".BASS 71" v="404.65584674195253" angle="-18.349899801426087"/>
        <bus id=".BASS 72" v="409.46095652291768" angle="-19.089705194167507"/>
      </busBreakerTopology>
      <load id=".BASS 7 TR 754 C" loadType="UNDEFINED" p0="0" q0="0" connectableBus=".BASS 71"/>
      <load id=".BASS 7 TR 753 C" loadType="UNDEFINED" p0="-491.01907348632812" q0="139.00651550292969" bus=".BASS 71" connectableBus=".BASS 71" p="-491.01907348632812" q="139.00651550292969">
        <property name="VECTCodeOITransfoDistrib" value="CAUMO-Y412"/>
      </load>
    </voltageLevel>
    <voltageLevel id=".TDBA 6" nominalV="225" topologyKind="BUS_BREAKER">
      <busBreakerTopology>
        <bus id=".TDBA 61" v="238.33471587719561" angle="-18.402977753004258"/>
      </busBreakerTopology>
    </voltageLevel>
    <twoWindingsTransformer id=".BASS TR 662" r="0.35000017285346985" x="7.1700019836425781" g="0" b="0" ratedU1="225" ratedU2="225" voltageLevelId1=".BASS 6" bus1=".BASS 61" connectableBus1=".BASS 61" voltageLevelId2=".TDBA 6" bus2=".TDBA 61" connectableBus2=".TDBA 61" p1="-10.871850358840732" q1="-54.427722883336173" p2="10.89126677545238" q2="54.825481965487597">
      <phaseTapChanger lowTapPosition="0" tapPosition="14" regulationMode="CURRENT_LIMITER" regulationValue="9604" regulating="false">
        <terminalRef id=".BASS TR 662" side="ONE"/>
        <step r="53.23455810546875" x="53.234554290771484" g="0" b="0" rho="0.91299998760223389" alpha="-7.8000001907348633"/>
        <step r="46.269027709960938" x="46.269020080566406" g="0" b="0" rho="0.9179999828338623" alpha="-7.3000001907348633"/>
        <step r="39.721691131591797" x="39.721694946289062" g="0" b="0" rho="0.92299997806549072" alpha="-6.9000000953674316"/>
        <step r="33.871139526367188" x="33.871139526367188" g="0" b="0" rho="0.92799997329711914" alpha="-6.5"/>
        <step r="28.57769775390625" x="28.577699661254883" g="0" b="0" rho="0.93300002813339233" alpha="-6.0999999046325684"/>
        <step r="23.841394424438477" x="23.841398239135742" g="0" b="0" rho="0.93900001049041748" alpha="-5.5999999046325684"/>
        <step r="19.522598266601562" x="19.522598266601562" g="0" b="0" rho="0.9440000057220459" alpha="-5.1999998092651367"/>
        <step r="15.761613845825195" x="15.761611938476562" g="0" b="0" rho="0.94900000095367432" alpha="-4.6999998092651367"/>
        <step r="12.279197692871094" x="12.27919864654541" g="0" b="0" rho="0.95399999618530273" alpha="-4.3000001907348633"/>
        <step r="9.2142858505249023" x="9.2142801284790039" g="0" b="0" rho="0.95899999141693115" alpha="-3.7999999523162842"/>
        <step r="6.707188606262207" x="6.707188606262207" g="0" b="0" rho="0.96399998664855957" alpha="-3.4000000953674316"/>
        <step r="4.6176033020019531" x="4.6176047325134277" g="0" b="0" rho="0.97000002861022949" alpha="-2.9000000953674316"/>
        <step r="2.9455153942108154" x="2.9455161094665527" g="0" b="0" rho="0.97500002384185791" alpha="-2.4000000953674316"/>
        <step r="1.8312580585479736" x="1.8312603235244751" g="0" b="0" rho="0.98000001907348633" alpha="-2"/>
        <step r="0.85593080520629883" x="0.85593247413635254" g="0" b="0" rho="0.98500001430511475" alpha="-1.5"/>
        <step r="0.29879793524742126" x="0.29879793524742126" g="0" b="0" rho="0.99000000953674316" alpha="-1"/>
        <step r="0.020231509581208229" x="0.020230658352375031" g="0" b="0" rho="0.99500000476837158" alpha="-0.5"/>
        <step r="-0.11868982017040253" x="-0.11869052052497864" g="0" b="0" rho="1" alpha="0"/>
        <step r="0.020231509581208229" x="0.020230658352375031" g="0" b="0" rho="1.0049999952316284" alpha="0.5"/>
        <step r="0.29879793524742126" x="0.29879793524742126" g="0" b="0" rho="1.0099999904632568" alpha="1"/>
        <step r="0.85593080520629883" x="0.85593247413635254" g="0" b="0" rho="1.0149999856948853" alpha="1.5"/>
        <step r="1.6923282146453857" x="1.6923325061798096" g="0" b="0" rho="1.0199999809265137" alpha="2"/>
        <step r="2.9455153942108154" x="2.9455161094665527" g="0" b="0" rho="1.0249999761581421" alpha="2.5999999046325684"/>
        <step r="4.4779753684997559" x="4.4779787063598633" g="0" b="0" rho="1.0299999713897705" alpha="3.0999999046325684"/>
        <step r="6.5675601959228516" x="6.5675625801086426" g="0" b="0" rho="1.034000039100647" alpha="3.5999999046325684"/>
        <step r="8.9357109069824219" x="8.9357128143310547" g="0" b="0" rho="1.0390000343322754" alpha="4.0999999046325684"/>
        <step r="12.000631332397461" x="12.000638008117676" g="0" b="0" rho="1.0440000295639038" alpha="4.6999998092651367"/>
        <step r="15.483030319213867" x="15.483037948608398" g="0" b="0" rho="1.0479999780654907" alpha="5.1999998092651367"/>
        <step r="19.244012832641602" x="19.244012832641602" g="0" b="0" rho="1.0529999732971191" alpha="5.8000001907348633"/>
        <step r="23.562835693359375" x="23.562837600708008" g="0" b="0" rho="1.0579999685287476" alpha="6.3000001907348633"/>
        <step r="28.299137115478516" x="28.299140930175781" g="0" b="0" rho="1.062000036239624" alpha="6.9000000953674316"/>
        <step r="33.592571258544922" x="33.592563629150391" g="0" b="0" rho="1.0670000314712524" alpha="7.5"/>
        <step r="39.443130493164062" x="39.443134307861328" g="0" b="0" rho="1.0709999799728394" alpha="8"/>
        <step r="45.851539611816406" x="45.851543426513672" g="0" b="0" rho="1.0750000476837158" alpha="8.6000003814697266"/>
        <step r="52.955986022949219" x="52.955989837646484" g="0" b="0" rho="1.0789999961853027" alpha="9.1999998092651367"/>
      </phaseTapChanger>
    </twoWindingsTransformer>
    <twoWindingsTransformer id=".BASS AT 762" r="0.91152411699295044" x="18.429046630859375" g="0" b="0" ratedU1="225" ratedU2="380" voltageLevelId1=".TDBA 6" bus1=".TDBA 61" connectableBus1=".TDBA 61" voltageLevelId2=".BASS 7" bus2=".BASS 71" connectableBus2=".BASS 71" p1="-10.891266775444933" q1="-54.825481965313884" p2="10.908879820540676" q2="55.181579646507089">
      <ratioTapChanger lowTapPosition="0" tapPosition="0" loadTapChangingCapabilities="false" regulating="false" targetDeadband="0.0">
        <step r="0" x="0" g="0" b="0" rho="0.99900001287460327"/>
      </ratioTapChanger>
    </twoWindingsTransformer>
  </substation>
  <substation id=".BAST 6_site" name="undefined" country="BE">
    <voltageLevel id=".BAST 6" nominalV="225" topologyKind="BUS_BREAKER">
      <busBreakerTopology>
        <bus id=".BAST 61"/>
      </busBreakerTopology>
      <load id=".BAST 6 CONSO 1" loadType="UNDEFINED" p0="0" q0="0" bus=".BAST 61" connectableBus=".BAST 61"/>
    </voltageLevel>
  </substation>
  <substation id=".BATI 6_site" name="undefined" country="CH">
    <voltageLevel id=".BATI 6" nominalV="225" topologyKind="BUS_BREAKER">
      <busBreakerTopology>
        <bus id=".BATI 61" v="238.72036743164062" angle="-12.855296619962315"/>
      </busBreakerTopology>
      <generator id=".BATIH/G.1" energySource="OTHER" minP="0" maxP="95" voltageRegulatorOn="true" targetP="0" bus=".BATI 61" connectableBus=".BATI 61" p="-0" q="3.1623456434481341" targetV="225">
        <reactiveCapabilityCurve>
          <point p="0" minQ="-29" maxQ="29"/>
          <point p="95" minQ="-29" maxQ="29"/>
        </reactiveCapabilityCurve>
      </generator>
      <generator id=".BATIH/G.2" energySource="OTHER" minP="0" maxP="95" voltageRegulatorOn="false" targetP="0" connectableBus=".BATI 61" targetQ="0">
        <reactiveCapabilityCurve>
          <point p="0" minQ="-29" maxQ="29"/>
          <point p="95" minQ="-29" maxQ="29"/>
        </reactiveCapabilityCurve>
      </generator>
      <load id="fict_.BATI 6_1" loadType="FICTITIOUS" p0="0.21233797073364258" q0="0" bus=".BATI 61" connectableBus=".BATI 61" p="0.21233797073364258" q="-0">
        <property name="chargeFictive" value="consoFictive"/>
      </load>
    </voltageLevel>
  </substation>
  <substation id=".BATI 7_site" name="undefined" country="CH">
    <voltageLevel id=".BATI 7" nominalV="380" topologyKind="BUS_BREAKER">
      <busBreakerTopology>
        <bus id=".BATI 71" v="407.84635830808253" angle="-9.7856622983196413"/>
      </busBreakerTopology>
      <load id="fict_.BATI 7_1" loadType="FICTITIOUS" p0="-1.365200400352478" q0="-0.34826064109802246" bus=".BATI 71" connectableBus=".BATI 71" p="-1.365200400352478" q="-0.34826064109802246">
        <property name="chargeFictive" value="consoFictive"/>
      </load>
    </voltageLevel>
  </substation>
  <substation id=".BAUL 6_site" name="undefined" country="DE">
    <voltageLevel id=".BAUL 6" nominalV="225" topologyKind="BUS_BREAKER">
      <busBreakerTopology>
        <bus id=".BAUL 61" v="241.58331298828125" angle="-25.623863993028955"/>
      </busBreakerTopology>
      <generator id=".VIANH/G.1" energySource="OTHER" minP="-30000" maxP="30000" voltageRegulatorOn="true" targetP="-0" bus=".BAUL 61" connectableBus=".BAUL 61" p="0" q="10.295525524898949" targetV="225">
        <reactiveCapabilityCurve>
          <point p="-30000" minQ="-30000" maxQ="30000"/>
          <point p="30000" minQ="-30000" maxQ="30000"/>
        </reactiveCapabilityCurve>
      </generator>
      <generator id=".VIANH/G.2" energySource="OTHER" minP="-30000" maxP="30000" voltageRegulatorOn="true" targetP="27.870323181152344" bus=".BAUL 61" connectableBus=".BAUL 61" p="-27.870323181152344" q="10.295525524898949" targetV="225">
        <reactiveCapabilityCurve>
          <point p="-30000" minQ="-30000" maxQ="30000"/>
          <point p="30000" minQ="-30000" maxQ="30000"/>
        </reactiveCapabilityCurve>
      </generator>
    </voltageLevel>
  </substation>
  <substation id=".BECH 6_site" name="undefined" country="ES">
    <voltageLevel id=".BECH 6" nominalV="225" topologyKind="BUS_BREAKER">
      <busBreakerTopology>
        <bus id=".BECH 61" v="231.51140692761714" angle="3.6924583580351622"/>
      </busBreakerTopology>
      <load id=".BECH 6 TR 612 C" loadType="UNDEFINED" p0="0" q0="0" connectableBus=".BECH 61"/>
      <load id=".BECH 6 TR 613 C" loadType="UNDEFINED" p0="0" q0="0" connectableBus=".BECH 61"/>
      <load id=".BECH 6 TR 611 C" loadType="UNDEFINED" p0="14.461580276489258" q0="1.7440261840820312" bus=".BECH 61" connectableBus=".BECH 61" p="14.461580276489258" q="1.7440261840820312">
        <property name="VECTCodeOITransfoDistrib" value="COUTA-Y412"/>
      </load>
    </voltageLevel>
  </substation>
  <substation id=".BEGU 7_site" name="undefined" country="ES">
    <voltageLevel id=".BEGU 6" nominalV="225" topologyKind="BUS_BREAKER">
      <busBreakerTopology>
        <bus id=".BEGU 61" v="226.76252319291734" angle="-0.17739142317469375"/>
      </busBreakerTopology>
      <load id="merged_load_.BEGU 61_1" loadType="UNDEFINED" p0="381.97467792034149" q0="-111.63632202148438" bus=".BEGU 61" connectableBus=".BEGU 61" p="381.97467792034149" q="-111.63632202148438"/>
    </voltageLevel>
    <voltageLevel id=".BEGU 7" nominalV="380" topologyKind="BUS_BREAKER">
      <busBreakerTopology>
        <bus id=".BEGU 71" v="407.48767523244737" angle="1.9091073729645618"/>
      </busBreakerTopology>
    </voltageLevel>
    <twoWindingsTransformer id=".BEGU AT 763" r="0.43319985270500183" x="33.040561676025391" g="0" b="0" ratedU1="225" ratedU2="380" voltageLevelId1=".BEGU 6" bus1=".BEGU 61" connectableBus1=".BEGU 61" voltageLevelId2=".BEGU 7" bus2=".BEGU 71" connectableBus2=".BEGU 71" p1="-183.88031749964637" q1="48.633662697789987" p2="183.97312415944839" q2="-41.555210828973031">
      <ratioTapChanger lowTapPosition="0" tapPosition="3" loadTapChangingCapabilities="false" regulating="false" targetDeadband="0.0">
        <step r="0" x="0" g="0" b="0" rho="1.1059999465942383"/>
        <step r="0" x="0" g="0" b="0" rho="1.0950000286102295"/>
        <step r="0" x="0" g="0" b="0" rho="1.0839999914169312"/>
        <step r="0" x="0" g="0" b="0" rho="1.0729999542236328"/>
        <step r="0" x="0" g="0" b="0" rho="1.062000036239624"/>
        <step r="0" x="0" g="0" b="0" rho="1.0509999990463257"/>
        <step r="0" x="0" g="0" b="0" rho="1.0399999618530273"/>
        <step r="0" x="0" g="0" b="0" rho="1.0290000438690186"/>
        <step r="0" x="0" g="0" b="0" rho="1.0180000066757202"/>
        <step r="0" x="0" g="0" b="0" rho="1.0069999694824219"/>
        <step r="0" x="0" g="0" b="0" rho="0.99599999189376831"/>
        <step r="0" x="0" g="0" b="0" rho="0.98500001430511475"/>
        <step r="0" x="0" g="0" b="0" rho="0.97399997711181641"/>
        <step r="0" x="0" g="0" b="0" rho="0.96299999952316284"/>
        <step r="0" x="0" g="0" b="0" rho="0.95200002193450928"/>
      </ratioTapChanger>
    </twoWindingsTransformer>
    <twoWindingsTransformer id=".BEGU AT 764" r="0.36100071668624878" x="29.719341278076172" g="0" b="0" ratedU1="225" ratedU2="380" voltageLevelId1=".BEGU 6" bus1=".BEGU 61" connectableBus1=".BEGU 61" voltageLevelId2=".BEGU 7" bus2=".BEGU 71" connectableBus2=".BEGU 71" p1="-204.86221943584292" q1="69.951411515378823" p2="204.96184186027307" q2="-61.750007218406608">
      <ratioTapChanger lowTapPosition="0" tapPosition="7" loadTapChangingCapabilities="false" regulating="false" targetDeadband="0.0">
        <step r="0" x="0" g="0" b="0" rho="1.1859999895095825"/>
        <step r="0" x="0" g="0" b="0" rho="1.1699999570846558"/>
        <step r="0" x="0" g="0" b="0" rho="1.1540000438690186"/>
        <step r="0" x="0" g="0" b="0" rho="1.1390000581741333"/>
        <step r="0" x="0" g="0" b="0" rho="1.1230000257492065"/>
        <step r="0" x="0" g="0" b="0" rho="1.1080000400543213"/>
        <step r="0" x="0" g="0" b="0" rho="1.0920000076293945"/>
        <step r="0" x="0" g="0" b="0" rho="1.0759999752044678"/>
        <step r="0" x="0" g="0" b="0" rho="1.0609999895095825"/>
        <step r="0" x="0" g="0" b="0" rho="1.0449999570846558"/>
        <step r="0" x="0" g="0" b="0" rho="1.0290000438690186"/>
        <step r="0" x="0" g="0" b="0" rho="1.0140000581741333"/>
        <step r="0" x="0" g="0" b="0" rho="0.99800002574920654"/>
        <step r="0" x="0" g="0" b="0" rho="0.98199999332427979"/>
        <step r="0" x="0" g="0" b="0" rho="0.96700000762939453"/>
        <step r="0" x="0" g="0" b="0" rho="0.95099997520446777"/>
        <step r="0" x="0" g="0" b="0" rho="0.93500000238418579"/>
        <step r="0" x="0" g="0" b="0" rho="0.92000001668930054"/>
        <step r="0" x="0" g="0" b="0" rho="0.90399998426437378"/>
        <step r="0" x="0" g="0" b="0" rho="0.8880000114440918"/>
        <step r="0" x="0" g="0" b="0" rho="0.87300002574920654"/>
      </ratioTapChanger>
    </twoWindingsTransformer>
  </substation>
  <substation id=".BELI 7_site" name="undefined" country="ES">
    <voltageLevel id=".BELI 7" nominalV="380" topologyKind="BUS_BREAKER">
      <busBreakerTopology>
        <bus id=".BELI 71" v="411.08667886614097" angle="-1.6440591623558489"/>
      </busBreakerTopology>
      <load id=".BELI 7 .CONS 1" loadType="UNDEFINED" p0="0" q0="0" bus=".BELI 71" connectableBus=".BELI 71" p="0" q="0"/>
    </voltageLevel>
  </substation>
  <substation id=".BENE 7_site" name="undefined" country="ES">
    <voltageLevel id=".BENE 6" nominalV="225" topologyKind="BUS_BREAKER">
      <busBreakerTopology>
        <bus id=".BENE 61" v="236.56242171178098" angle="7.5451523887633494"/>
      </busBreakerTopology>
      <load id=".BENE 6 CONSO 1" loadType="UNDEFINED" p0="0" q0="0" bus=".BENE 61" connectableBus=".BENE 61" p="0" q="0"/>
    </voltageLevel>
    <voltageLevel id=".BENE 7" nominalV="380" topologyKind="BUS_BREAKER">
      <busBreakerTopology>
        <bus id=".BENE 71" v="410.19592614687582" angle="7.5471222382072192"/>
      </busBreakerTopology>
      <load id=".BENE 7 CONSO 1" loadType="UNDEFINED" p0="245.2330322265625" q0="25.333885192871094" bus=".BENE 71" connectableBus=".BENE 71" p="245.2330322265625" q="25.333885192871094">
        <property name="VECTCodeOITransfoDistrib" value="GROUX-Y412"/>
      </load>
    </voltageLevel>
    <twoWindingsTransformer id=".BENE AT 761" r="0.57759976387023926" x="37.543987274169922" g="0" b="0" ratedU1="225" ratedU2="380" voltageLevelId1=".BENE 6" bus1=".BENE 61" connectableBus1=".BENE 61" voltageLevelId2=".BENE 7" bus2=".BENE 71" connectableBus2=".BENE 71" p1="0.00022980343537426506" q1="10.052700283116792" p2="0.0001155533908132611" q2="-10.030252087548433">
      <ratioTapChanger lowTapPosition="0" tapPosition="15" loadTapChangingCapabilities="false" regulating="false" targetDeadband="0.0">
        <step r="0" x="0" g="0" b="0" rho="1.1840000152587891"/>
        <step r="0" x="0" g="0" b="0" rho="1.1729999780654907"/>
        <step r="0" x="0" g="0" b="0" rho="1.1629999876022339"/>
        <step r="0" x="0" g="0" b="0" rho="1.1529999971389771"/>
        <step r="0" x="0" g="0" b="0" rho="1.1430000066757202"/>
        <step r="0" x="0" g="0" b="0" rho="1.1319999694824219"/>
        <step r="0" x="0" g="0" b="0" rho="1.121999979019165"/>
        <step r="0" x="0" g="0" b="0" rho="1.1119999885559082"/>
        <step r="0" x="0" g="0" b="0" rho="1.1009999513626099"/>
        <step r="0" x="0" g="0" b="0" rho="1.090999960899353"/>
        <step r="0" x="0" g="0" b="0" rho="1.0809999704360962"/>
        <step r="0" x="0" g="0" b="0" rho="1.0700000524520874"/>
        <step r="0" x="0" g="0" b="0" rho="1.059999942779541"/>
        <step r="0" x="0" g="0" b="0" rho="1.0499999523162842"/>
        <step r="0" x="0" g="0" b="0" rho="1.0399999618530273"/>
        <step r="0" x="0" g="0" b="0" rho="1.0290000438690186"/>
        <step r="0" x="0" g="0" b="0" rho="1.0190000534057617"/>
        <step r="0" x="0" g="0" b="0" rho="1.0089999437332153"/>
        <step r="0" x="0" g="0" b="0" rho="0.99800002574920654"/>
        <step r="0" x="0" g="0" b="0" rho="0.98799997568130493"/>
        <step r="0" x="0" g="0" b="0" rho="0.9779999852180481"/>
        <step r="0" x="0" g="0" b="0" rho="0.96700000762939453"/>
        <step r="0" x="0" g="0" b="0" rho="0.9570000171661377"/>
        <step r="0" x="0" g="0" b="0" rho="0.94700002670288086"/>
        <step r="0" x="0" g="0" b="0" rho="0.93699997663497925"/>
        <step r="0" x="0" g="0" b="0" rho="0.92599999904632568"/>
        <step r="0" x="0" g="0" b="0" rho="0.91600000858306885"/>
        <step r="0" x="0" g="0" b="0" rho="0.90600001811981201"/>
        <step r="0" x="0" g="0" b="0" rho="0.89499998092651367"/>
        <step r="0" x="0" g="0" b="0" rho="0.88499999046325684"/>
        <step r="0" x="0" g="0" b="0" rho="0.875"/>
      </ratioTapChanger>
    </twoWindingsTransformer>
    <twoWindingsTransformer id=".BENE AT 762" r="0.57760035991668701" x="39.303890228271484" g="0" b="0" ratedU1="225" ratedU2="380" voltageLevelId1=".BENE 6" bus1=".BENE 61" connectableBus1=".BENE 61" voltageLevelId2=".BENE 7" bus2=".BENE 71" connectableBus2=".BENE 71" p1="-0.0063938752567906931" q1="9.6026707347846241" p2="0.0067090034363062045" q2="-9.5812272514285723">
      <ratioTapChanger lowTapPosition="0" tapPosition="15" loadTapChangingCapabilities="false" regulating="false" targetDeadband="0.0">
        <step r="0" x="0" g="0" b="0" rho="1.1840000152587891"/>
        <step r="0" x="0" g="0" b="0" rho="1.1729999780654907"/>
        <step r="0" x="0" g="0" b="0" rho="1.1629999876022339"/>
        <step r="0" x="0" g="0" b="0" rho="1.1529999971389771"/>
        <step r="0" x="0" g="0" b="0" rho="1.1430000066757202"/>
        <step r="0" x="0" g="0" b="0" rho="1.1319999694824219"/>
        <step r="0" x="0" g="0" b="0" rho="1.121999979019165"/>
        <step r="0" x="0" g="0" b="0" rho="1.1119999885559082"/>
        <step r="0" x="0" g="0" b="0" rho="1.1009999513626099"/>
        <step r="0" x="0" g="0" b="0" rho="1.090999960899353"/>
        <step r="0" x="0" g="0" b="0" rho="1.0809999704360962"/>
        <step r="0" x="0" g="0" b="0" rho="1.0700000524520874"/>
        <step r="0" x="0" g="0" b="0" rho="1.059999942779541"/>
        <step r="0" x="0" g="0" b="0" rho="1.0499999523162842"/>
        <step r="0" x="0" g="0" b="0" rho="1.0399999618530273"/>
        <step r="0" x="0" g="0" b="0" rho="1.0290000438690186"/>
        <step r="0" x="0" g="0" b="0" rho="1.0190000534057617"/>
        <step r="0" x="0" g="0" b="0" rho="1.0089999437332153"/>
        <step r="0" x="0" g="0" b="0" rho="0.99800002574920654"/>
        <step r="0" x="0" g="0" b="0" rho="0.98799997568130493"/>
        <step r="0" x="0" g="0" b="0" rho="0.9779999852180481"/>
        <step r="0" x="0" g="0" b="0" rho="0.96700000762939453"/>
        <step r="0" x="0" g="0" b="0" rho="0.9570000171661377"/>
        <step r="0" x="0" g="0" b="0" rho="0.94700002670288086"/>
        <step r="0" x="0" g="0" b="0" rho="0.93699997663497925"/>
        <step r="0" x="0" g="0" b="0" rho="0.92599999904632568"/>
        <step r="0" x="0" g="0" b="0" rho="0.91600000858306885"/>
        <step r="0" x="0" g="0" b="0" rho="0.90600001811981201"/>
        <step r="0" x="0" g="0" b="0" rho="0.89499998092651367"/>
        <step r="0" x="0" g="0" b="0" rho="0.88499999046325684"/>
        <step r="0" x="0" g="0" b="0" rho="0.875"/>
      </ratioTapChanger>
    </twoWindingsTransformer>
    <twoWindingsTransformer id=".BENE AT 764" r="0.57760041952133179" x="38.843608856201172" g="0" b="0" ratedU1="225" ratedU2="380" voltageLevelId1=".BENE 6" bus1=".BENE 61" connectableBus1=".BENE 61" voltageLevelId2=".BENE 7" bus2=".BENE 71" connectableBus2=".BENE 71" p1="-0.0047779743221099125" q1="9.7164339626315268" p2="0.0051006133791986485" q2="-9.6947364954921795">
      <ratioTapChanger lowTapPosition="0" tapPosition="15" loadTapChangingCapabilities="false" regulating="false" targetDeadband="0.0">
        <step r="0" x="0" g="0" b="0" rho="1.1840000152587891"/>
        <step r="0" x="0" g="0" b="0" rho="1.1729999780654907"/>
        <step r="0" x="0" g="0" b="0" rho="1.1629999876022339"/>
        <step r="0" x="0" g="0" b="0" rho="1.1529999971389771"/>
        <step r="0" x="0" g="0" b="0" rho="1.1430000066757202"/>
        <step r="0" x="0" g="0" b="0" rho="1.1319999694824219"/>
        <step r="0" x="0" g="0" b="0" rho="1.121999979019165"/>
        <step r="0" x="0" g="0" b="0" rho="1.1119999885559082"/>
        <step r="0" x="0" g="0" b="0" rho="1.1009999513626099"/>
        <step r="0" x="0" g="0" b="0" rho="1.090999960899353"/>
        <step r="0" x="0" g="0" b="0" rho="1.0809999704360962"/>
        <step r="0" x="0" g="0" b="0" rho="1.0700000524520874"/>
        <step r="0" x="0" g="0" b="0" rho="1.059999942779541"/>
        <step r="0" x="0" g="0" b="0" rho="1.0499999523162842"/>
        <step r="0" x="0" g="0" b="0" rho="1.0399999618530273"/>
        <step r="0" x="0" g="0" b="0" rho="1.0290000438690186"/>
        <step r="0" x="0" g="0" b="0" rho="1.0190000534057617"/>
        <step r="0" x="0" g="0" b="0" rho="1.0089999437332153"/>
        <step r="0" x="0" g="0" b="0" rho="0.99800002574920654"/>
        <step r="0" x="0" g="0" b="0" rho="0.98799997568130493"/>
        <step r="0" x="0" g="0" b="0" rho="0.9779999852180481"/>
        <step r="0" x="0" g="0" b="0" rho="0.96700000762939453"/>
        <step r="0" x="0" g="0" b="0" rho="0.9570000171661377"/>
        <step r="0" x="0" g="0" b="0" rho="0.94700002670288086"/>
        <step r="0" x="0" g="0" b="0" rho="0.93699997663497925"/>
        <step r="0" x="0" g="0" b="0" rho="0.92599999904632568"/>
        <step r="0" x="0" g="0" b="0" rho="0.91600000858306885"/>
        <step r="0" x="0" g="0" b="0" rho="0.90600001811981201"/>
        <step r="0" x="0" g="0" b="0" rho="0.89499998092651367"/>
        <step r="0" x="0" g="0" b="0" rho="0.88499999046325684"/>
        <step r="0" x="0" g="0" b="0" rho="0.875"/>
      </ratioTapChanger>
    </twoWindingsTransformer>
  </substation>
  <substation id=".BENI 6_site" name="undefined" country="ES">
    <voltageLevel id=".BENI 6" nominalV="225" topologyKind="BUS_BREAKER">
      <busBreakerTopology>
        <bus id=".BENI 61" v="231.11205170117532" angle="4.3903763107980138"/>
      </busBreakerTopology>
      <load id=".BENI 6 .CONS 1" loadType="UNDEFINED" p0="0" q0="0" connectableBus=".BENI 61"/>
      <load id="merged_load_.BENI 61_1" loadType="UNDEFINED" p0="146.82987976074219" q0="-88.354448318481445" bus=".BENI 61" connectableBus=".BENI 61" p="146.82987976074219" q="-88.354448318481445"/>
    </voltageLevel>
  </substation>
  <substation id=".BENK 7_site" name="undefined" country="CH">
    <voltageLevel id=".BENK 7" nominalV="380" topologyKind="BUS_BREAKER">
      <busBreakerTopology>
...